Version 4
SHEET 1 880 680
WIRE -64 -32 -80 -32
WIRE 48 -32 16 -32
WIRE 192 -32 128 -32
WIRE -80 -16 -80 -32
WIRE -96 80 -128 80
WIRE 32 80 -32 80
WIRE 192 80 192 -32
WIRE 192 80 112 80
WIRE 192 112 192 80
WIRE 304 112 192 112
WIRE 416 112 368 112
WIRE -304 160 -336 160
WIRE -192 160 -224 160
WIRE -128 160 -128 80
WIRE 128 160 -128 160
WIRE -336 176 -336 160
WIRE 192 368 192 208
FLAG 192 368 0
FLAG -80 -16 0
FLAG -336 176 0
SYMBOL npn 128 112 R0
SYMATTR InstName Q1
SYMATTR Value 2N3904
SYMBOL cap 368 96 R90
WINDOW 0 0 32 VBottom 2
WINDOW 3 32 32 VTop 2
SYMATTR InstName C1
SYMATTR Value 0.1µ
SYMBOL cap -128 144 R90
WINDOW 0 0 32 VBottom 2
WINDOW 3 32 32 VTop 2
SYMATTR InstName C2
SYMATTR Value 2.2µ
SYMBOL res 32 -16 R270
WINDOW 0 43 57 VTop 2
WINDOW 3 0 56 VBottom 2
SYMATTR InstName R1
SYMATTR Value 10k
SYMBOL diode -32 64 R90
WINDOW 0 0 32 VBottom 2
WINDOW 3 32 32 VTop 2
SYMATTR InstName D1
SYMATTR Value 1N4148
SYMBOL voltage 32 -32 R90
WINDOW 0 -32 56 VBottom 2
WINDOW 3 32 56 VTop 2
WINDOW 123 0 0 Left 2
WINDOW 39 0 0 Left 2
SYMATTR InstName V1
SYMATTR Value +9
SYMBOL voltage -208 160 R90
WINDOW 0 -32 56 VBottom 2
WINDOW 3 32 56 VTop 2
WINDOW 123 0 0 Left 2
WINDOW 39 0 0 Left 2
SYMATTR InstName V2
SYMATTR Value SINE(0 1 440)
SYMBOL res 128 64 R90
WINDOW 0 0 56 VBottom 2
WINDOW 3 32 56 VTop 2
SYMATTR InstName R2
SYMATTR Value 1k
TEXT -356 280 Left 2 !.tran 0.005
